assets/IMEElogo.pngassetassets/IMEElogo.pngassets/IONTUlogo.pngassetassets/IONTUlogo.pngassets/NMMSTlogo.pngassetassets/NMMSTlogo.pngassets/SEAWATCHlogo.pngassetassets/SEAWATCHlogo.png2packages/cupertino_icons/assets/CupertinoIcons.ttfasset2packages/cupertino_icons/assets/CupertinoIcons.ttf